                                  MODFLOW-NWT-SWR1 
      U.S. GEOLOGICAL SURVEY MODULAR FINITE-DIFFERENCE GROUNDWATER-FLOW MODEL
                            VERSION 1.3.0 07/01/2022
                    BASED ON MODFLOW-2005 VERSION 1.12.00 02/03/2017

 LIST FILE: Results/SWRSample04.lst
                         UNIT    7

 OPENING SWRSample04.bas
 FILE TYPE:BAS6   UNIT    1   STATUS:OLD    
 FORMAT:FORMATTED              ACCESS:SEQUENTIAL          

 OPENING SWRSample04.dis
 FILE TYPE:DIS   UNIT   29   STATUS:OLD    
 FORMAT:FORMATTED              ACCESS:SEQUENTIAL          

 OPENING SWRSample04.lpf
 FILE TYPE:LPF   UNIT   11   STATUS:OLD    
 FORMAT:FORMATTED              ACCESS:SEQUENTIAL          

 OPENING SWRSample04.oc
 FILE TYPE:OC   UNIT   22   STATUS:OLD    
 FORMAT:FORMATTED              ACCESS:SEQUENTIAL          

 OPENING SWRSample04.pcg
 FILE TYPE:PCG   UNIT   19   STATUS:OLD    
 FORMAT:FORMATTED              ACCESS:SEQUENTIAL          

 OPENING SWRSample04.swr
 FILE TYPE:SWR   UNIT   61   STATUS:OLD    
 FORMAT:FORMATTED              ACCESS:SEQUENTIAL          

 OPENING Data/Reach1Inflow.ref
 FILE TYPE:DATA   UNIT  201   STATUS:UNKNOWN
 FORMAT:FORMATTED              ACCESS:SEQUENTIAL          

 OPENING Results/SWRSample04_GroupFlow.csv
 FILE TYPE:DATA   UNIT  101   STATUS:UNKNOWN
 FORMAT:FORMATTED              ACCESS:SEQUENTIAL          

 OPENING Results/SWRSample04_Stage.csv
 FILE TYPE:DATA   UNIT  102   STATUS:UNKNOWN
 FORMAT:FORMATTED              ACCESS:SEQUENTIAL          

 OPENING Results/SWRSample04_Velocity.csv
 FILE TYPE:DATA   UNIT  103   STATUS:UNKNOWN
 FORMAT:FORMATTED              ACCESS:SEQUENTIAL          

 BAS -- BASIC PACKAGE, VERSION 1.3.0, 7/01/2022 INPUT READ FROM UNIT    1
 
 MODFLOW was compiled using mixed precision
 Precision of REAL variables:           6
 Precision of DOUBLE PRECISION variables:          15

 DISCRETIZATION INPUT DATA READ FROM UNIT   29
 # MODFLOW2000 Discretization File
    1 LAYERS         1 ROWS         1 COLUMNS
    2 STRESS PERIOD(S) IN SIMULATION
 MODEL TIME UNIT IS SECONDS
 MODEL LENGTH UNIT IS METERS
  Confining bed flag for each layer:
   0

                     DELR =   1000.00    

                     DELC =   1000.00    

 TOP ELEVATION OF LAYER 1 =   5.00000    

   MODEL LAYER BOTTOM EL. =  -5.00000     FOR LAYER   1


 STRESS PERIOD     LENGTH       TIME STEPS     MULTIPLIER FOR DELT    SS FLAG
 ----------------------------------------------------------------------------
        1         86400.00        144                    1.000         SS
        2         86400.00        144                    1.000         TR

 COMBINED STEADY-STATE AND TRANSIENT SIMULATION



 
 # MODFLOW2005 Basic Package                                                     
 #MODFLOW Data Set Created by Groundwater Vistas                                 
 #

           BOUNDARY ARRAY =              1 FOR LAYER   1

 AQUIFER HEAD WILL BE SET TO   999.00     AT ALL NO-FLOW NODES (IBOUND=0).

             INITIAL HEAD =   1.00000     FOR LAYER   1

 OUTPUT CONTROL IS SPECIFIED ONLY AT TIME STEPS FOR WHICH OUTPUT IS DESIRED
 HEAD PRINT FORMAT CODE IS   0    DRAWDOWN PRINT FORMAT CODE IS   0
 HEADS WILL BE SAVED ON UNIT    0    DRAWDOWNS WILL BE SAVED ON UNIT    0

 LPF -- LAYER-PROPERTY FLOW PACKAGE, VERSION 7, 5/2/2005
         INPUT READ FROM UNIT   11
 # MODFLOW2000 Layer Property Flow (LPF) Package
 HEAD AT CELLS THAT CONVERT TO DRY= -1.00000E+30
 No named parameters

   LAYER FLAGS:
 LAYER       LAYTYP        LAYAVG         CHANI        LAYVKA        LAYWET
 ---------------------------------------------------------------------------
    1             1             0     1.000E+00             0             1

   INTERPRETATION OF LAYER FLAGS:
                        INTERBLOCK     HORIZONTAL    DATA IN
         LAYER TYPE   TRANSMISSIVITY   ANISOTROPY   ARRAY VKA   WETTABILITY
 LAYER      (LAYTYP)      (LAYAVG)       (CHANI)      (LAYVKA)      (LAYWET)
 ---------------------------------------------------------------------------
    1   CONVERTIBLE      HARMONIC     1.000E+00    VERTICAL K      WETTABLE

 WETTING CAPABILITY IS ACTIVE IN   1 LAYERS
  WETTING FACTOR=  0.1000000    
  WETTING ITERATION INTERVAL=           4
  IHDWET=           1

    HYD. COND. ALONG ROWS =   5.00000     FOR LAYER   1

      VERTICAL HYD. COND. =   5.00000     FOR LAYER   1

         SPECIFIC STORAGE =   1.00000     FOR LAYER   1

           SPECIFIC YIELD =  0.200000     FOR LAYER   1

         WETDRY PARAMETER =  0.100000     FOR LAYER   1

 PCG -- CONJUGATE-GRADIENT SOLUTION PACKAGE, VERSION 7, 5/2/2005
 MAXIMUM OF    100 CALLS OF SOLUTION ROUTINE
 MAXIMUM OF     25 INTERNAL ITERATIONS PER CALL TO SOLUTION ROUTINE
 MATRIX PRECONDITIONING TYPE :    1
 IHCOFADD option -- When an active cell is surrounded by dry cells, convert
 the cell to dry only if storage and head-dependent boundary flow are 0.



                                    SOLUTION BY THE CONJUGATE-GRADIENT METHOD
                                   -------------------------------------------
                    MAXIMUM NUMBER OF CALLS TO PCG ROUTINE =      100
                        MAXIMUM ITERATIONS PER CALL TO PCG =       25
                               MATRIX PRECONDITIONING TYPE =        1
        RELAXATION FACTOR (ONLY USED WITH PRECOND. TYPE 1) =    0.10000E+01
 PARAMETER OF POLYNOMIAL PRECOND. = 2 (2) OR IS CALCULATED :        2
                         HEAD CHANGE CRITERION FOR CLOSURE =    0.10000E-02
                     RESIDUAL CHANGE CRITERION FOR CLOSURE =    0.10000E+01
            PCG HEAD AND RESIDUAL CHANGE PRINTOUT INTERVAL =        5
     PRINTING FROM SOLVER IS LIMITED(1) OR SUPPRESSED (>1) =        0
                            STEADY-STATE DAMPING PARAMETER =    0.10000E+01
                               TRANSIENT DAMPING PARAMETER =    0.10000E+01

 SWR -- SURFACE-WATER ROUTING PACKAGE,
 $Id: gwf2swr7.f 1.05 2022-03-10 15:00:00Z jdhughes $            
 INPUT READ FROM UNIT   61

 ...READING SWR1 PROCESS DATASET 1A
 SWR1 OPTIONS SPECIFIED IN DATASET 1B

 ...READING SWR1 PROCESS DATASET 1B
 UNRECOGNIZED SWR1 OPTION: USE_RCM_REORDERING


 SUMMARY OF SWR1 OPTIONS USED IN SIMULATION
 OPTION OPTION KEYWORD                       FILE UNIT
 ------ ----------------------------------- ----------
      7 USE_TABFILES                              NONE
      8 USE_NONCONVERGENCE_CONTINUE               NONE
 -----------------------------------------------------

 ...READING SWR1 PROCESS DATASET 2

 ...READING SWR1 PROCESS DATASET 3

 NUMBER OF REACHES                         =   21
 SURFACE WATER ONLY SIMULATION (>0=TRUE)   =    1
 LENGTH CONVERSION FACTOR                  =   1.000000    
 TIME CONVERSION FACTOR                    =   1.000000    
 MINIMUM GRADIENT FOR FLOW                 =   0.000000    
 MAXIMUM DEPTH FOR SCALING REACH OUTFLOW   =  0.1000000E-01
 MINIMUM DEPTH FOR REACH OUTFLOW           =  0.1000000E-02
 DIFFUSIVE-WAVE APPROX. SPATIAL WEIGHTING  = CENTRAL             
 DEPTH SCALING                             = SIGMOID             
 TWO-DIMENSIONAL COORD.-INVARIANT APPROACH = EXPLICIT            
 MINIMUM ROUTING TIME STEP LENGTH          =   300.0000    
 MAXIMUM ROUTING TIME STEP LENGTH          =   300.0000    
 INITIAL ROUTING TIME STEP LENGTH          =   300.0000    
 OUTPUT PRINT INCREMENT                    =   600.0000    
 ADAPTIVE TIME STEP INCREMENT (RTMULT)     =   1.000000    
 ADAPTIVE TIME STEP INCREMENT FREQUENCY    =    1
 MAXIMUM RAINFALL      PER ROUTING STEP    =   0.000000    
 MAXIMUM STAGE  CHANGE PER ROUTING STEP    =   0.000000    
 MAXIMUM INFLOW CHANGE PER ROUTING STEP    =   0.000000    

 CBC OUTPUT UNIT (ISWRCBC)                 =    0
 GROUP FLOW TERMS OUTPUT UNIT (ISWRPRGF)   =  101
 REACH STAGE OUTPUT UNIT (ISWRPSTG)        =  102
 REACH AQ-RCH FLOW OUTPUT UNIT (ISWRPQAQ)  =    0
 REACH LATERAL FLOW OUTPUT UNIT (ISWRPQM)  =  103
 STRUCTURE FLOW OUTPUT UNIT (ISWRPSTR)     =    0
 SUMMARY VELOCITY AND FROUDE INFORMATION   =    F


               --- SWR SOLVER PARAMETERS ---
 SOLVER = BICONJUGATE GRADIENT STABILIZED         
 PRECONDITIONER                            = INCOMPLETE LU       
 JACOBIAN SCALING                          = NO SCALING          
 MAXIMUM NUMBER OF OUTER ITERATIONS        =  100
 MAXIMUM NUMBER OF INNER ITERATIONS        =   50
 NON-CONVERGENCE CONT.OF SWR AND MODFLOW   =    T
 MAXIMUM STAGE    TOLERANCE (TOLS)         =  0.1000000E-08
 MAXIMUM ROOT     TOLERANCE (TOLR)         =  0.2000000E-03
 INEXACT NEWTON APPROACH (INEXCTNWT)       =    F
 MAXIMUM AQ-RCH FLOW TOLERANCE (TOLA)      =  0.0000000E+00
 STEADY-STATE DAMPENING PARAMETER (DAMPSS) =  0.1000000E+01
 TRANSIENT DAMPENING PARAMETER (DAMPTR)    =  0.1000000E+01
 PSEUDO-TRANSIENT CONTINUATION APPROACH    =    F
 SOLVER OUTPUT FREQUENCY (IPRSWR)          =  999
 CONVERGENCE PRINTING FLAG (MUTSWR)        =    0
   0 - MAXIMUM RESIDUAL EACH SWR TIMESTEP
   1 - TOTAL NUMBER OF ITERATIONS EACH SWR TIMESTEP
   2 - NO PRINTING
   3 - PRINTING IF CONVERGENCE FAILS
 BACKTRACKING ALLOWED                      =    T
 MAXIMUM BACKTRACKING ITERATIONS (IBT)     =   60
 BACKTRACKING OUTPUT FREQUENCY  (IBTPRT)   =    1


 SURFACE WATER ONLY SIMULATION
 SETTING MODFLOW IBOUND TO ZERO FOR ALL CELLS

 ...READING SWR1 PROCESS DATASET 4A

 ...READING SWR1 PROCESS DATASET 4B

 -----------------------------------------------------------
 FULL REACH CONNECTIVITY FOR EACH REACH

 -----------------------------------------------------------
 REACH  =     1
               -----------------CONNECTIONS-----------------
                            1
 -----------------------------------------------------------
 REACHES           1 TO     2
 -----------------------------------------------------------

 -----------------------------------------------------------
 REACH  =     2
               -----------------CONNECTIONS-----------------
                            1              2
 -----------------------------------------------------------
 REACHES           2 TO     1     2 TO     3
 -----------------------------------------------------------

 -----------------------------------------------------------
 REACH  =     3
               -----------------CONNECTIONS-----------------
                            1              2
 -----------------------------------------------------------
 REACHES           3 TO     2     3 TO     4
 -----------------------------------------------------------

 -----------------------------------------------------------
 REACH  =     4
               -----------------CONNECTIONS-----------------
                            1              2
 -----------------------------------------------------------
 REACHES           4 TO     3     4 TO     5
 -----------------------------------------------------------

 -----------------------------------------------------------
 REACH  =     5
               -----------------CONNECTIONS-----------------
                            1              2
 -----------------------------------------------------------
 REACHES           5 TO     4     5 TO     6
 -----------------------------------------------------------

 -----------------------------------------------------------
 REACH  =     6
               -----------------CONNECTIONS-----------------
                            1              2
 -----------------------------------------------------------
 REACHES           6 TO     5     6 TO     7
 -----------------------------------------------------------

 -----------------------------------------------------------
 REACH  =     7
               -----------------CONNECTIONS-----------------
                            1              2
 -----------------------------------------------------------
 REACHES           7 TO     6     7 TO     8
 -----------------------------------------------------------

 -----------------------------------------------------------
 REACH  =     8
               -----------------CONNECTIONS-----------------
                            1              2
 -----------------------------------------------------------
 REACHES           8 TO     7     8 TO     9
 -----------------------------------------------------------

 -----------------------------------------------------------
 REACH  =     9
               -----------------CONNECTIONS-----------------
                            1              2
 -----------------------------------------------------------
 REACHES           9 TO     8     9 TO    10
 -----------------------------------------------------------

 -----------------------------------------------------------
 REACH  =    10
               -----------------CONNECTIONS-----------------
                            1              2
 -----------------------------------------------------------
 REACHES          10 TO     9    10 TO    11
 -----------------------------------------------------------

 -----------------------------------------------------------
 REACH  =    11
               -----------------CONNECTIONS-----------------
                            1              2
 -----------------------------------------------------------
 REACHES          11 TO    10    11 TO    12
 -----------------------------------------------------------

 -----------------------------------------------------------
 REACH  =    12
               -----------------CONNECTIONS-----------------
                            1              2
 -----------------------------------------------------------
 REACHES          12 TO    11    12 TO    13
 -----------------------------------------------------------

 -----------------------------------------------------------
 REACH  =    13
               -----------------CONNECTIONS-----------------
                            1              2
 -----------------------------------------------------------
 REACHES          13 TO    12    13 TO    14
 -----------------------------------------------------------

 -----------------------------------------------------------
 REACH  =    14
               -----------------CONNECTIONS-----------------
                            1              2
 -----------------------------------------------------------
 REACHES          14 TO    13    14 TO    15
 -----------------------------------------------------------

 -----------------------------------------------------------
 REACH  =    15
               -----------------CONNECTIONS-----------------
                            1              2
 -----------------------------------------------------------
 REACHES          15 TO    14    15 TO    16
 -----------------------------------------------------------

 -----------------------------------------------------------
 REACH  =    16
               -----------------CONNECTIONS-----------------
                            1              2
 -----------------------------------------------------------
 REACHES          16 TO    15    16 TO    17
 -----------------------------------------------------------

 -----------------------------------------------------------
 REACH  =    17
               -----------------CONNECTIONS-----------------
                            1              2
 -----------------------------------------------------------
 REACHES          17 TO    16    17 TO    18
 -----------------------------------------------------------

 -----------------------------------------------------------
 REACH  =    18
               -----------------CONNECTIONS-----------------
                            1              2
 -----------------------------------------------------------
 REACHES          18 TO    17    18 TO    19
 -----------------------------------------------------------

 -----------------------------------------------------------
 REACH  =    19
               -----------------CONNECTIONS-----------------
                            1              2
 -----------------------------------------------------------
 REACHES          19 TO    18    19 TO    20
 -----------------------------------------------------------

 -----------------------------------------------------------
 REACH  =    20
               -----------------CONNECTIONS-----------------
                            1              2
 -----------------------------------------------------------
 REACHES          20 TO    19    20 TO    21
 -----------------------------------------------------------

 -----------------------------------------------------------
 REACH  =    21
               -----------------CONNECTIONS-----------------
                            1
 -----------------------------------------------------------
 REACHES          21 TO    20
 -----------------------------------------------------------


 TIME-INVARIANT SURFACE-WATER ROUTING REACH DATA
  REACH IROUTETYPE SOLUTION METHOD      IRGNUM    IRG    LAY    ROW    COL       DLEN
 --------------------------------------------------------------------------------------------------
      1          3 DIFFUSIVE-WAVE            1      1      1      1      1  0.100E+04
      2          3 DIFFUSIVE-WAVE            2      2      1      1      1  0.100E+04
      3          3 DIFFUSIVE-WAVE            3      3      1      1      1  0.100E+04
      4          3 DIFFUSIVE-WAVE            4      4      1      1      1  0.100E+04
      5          3 DIFFUSIVE-WAVE            5      5      1      1      1  0.100E+04
      6          3 DIFFUSIVE-WAVE            6      6      1      1      1  0.100E+04
      7          3 DIFFUSIVE-WAVE            7      7      1      1      1  0.100E+04
      8          3 DIFFUSIVE-WAVE            8      8      1      1      1  0.100E+04
      9          3 DIFFUSIVE-WAVE            9      9      1      1      1  0.100E+04
     10          3 DIFFUSIVE-WAVE           10     10      1      1      1  0.100E+04
     11          3 DIFFUSIVE-WAVE           11     11      1      1      1  0.100E+04
     12          3 DIFFUSIVE-WAVE           12     12      1      1      1  0.100E+04
     13          3 DIFFUSIVE-WAVE           13     13      1      1      1  0.100E+04
     14          3 DIFFUSIVE-WAVE           14     14      1      1      1  0.100E+04
     15          3 DIFFUSIVE-WAVE           15     15      1      1      1  0.100E+04
     16          3 DIFFUSIVE-WAVE           16     16      1      1      1  0.100E+04
     17          3 DIFFUSIVE-WAVE           17     17      1      1      1  0.100E+04
     18          3 DIFFUSIVE-WAVE           18     18      1      1      1  0.100E+04
     19          3 DIFFUSIVE-WAVE           19     19      1      1      1  0.100E+04
     20          3 DIFFUSIVE-WAVE           20     20      1      1      1  0.100E+04
     21          3 DIFFUSIVE-WAVE           21     21      1      1      1  0.100E+04


 SWR REACH GROUPS: REACHES IN REACH GROUP
 ---------------------------------------------------------------------
 REACH GROUP =     1 IRGNUM =     1    REACHES     1
 REACH GROUP =     2 IRGNUM =     2    REACHES     2
 REACH GROUP =     3 IRGNUM =     3    REACHES     3
 REACH GROUP =     4 IRGNUM =     4    REACHES     4
 REACH GROUP =     5 IRGNUM =     5    REACHES     5
 REACH GROUP =     6 IRGNUM =     6    REACHES     6
 REACH GROUP =     7 IRGNUM =     7    REACHES     7
 REACH GROUP =     8 IRGNUM =     8    REACHES     8
 REACH GROUP =     9 IRGNUM =     9    REACHES     9
 REACH GROUP =    10 IRGNUM =    10    REACHES    10
 REACH GROUP =    11 IRGNUM =    11    REACHES    11
 REACH GROUP =    12 IRGNUM =    12    REACHES    12
 REACH GROUP =    13 IRGNUM =    13    REACHES    13
 REACH GROUP =    14 IRGNUM =    14    REACHES    14
 REACH GROUP =    15 IRGNUM =    15    REACHES    15
 REACH GROUP =    16 IRGNUM =    16    REACHES    16
 REACH GROUP =    17 IRGNUM =    17    REACHES    17
 REACH GROUP =    18 IRGNUM =    18    REACHES    18
 REACH GROUP =    19 IRGNUM =    19    REACHES    19
 REACH GROUP =    20 IRGNUM =    20    REACHES    20
 REACH GROUP =    21 IRGNUM =    21    REACHES    21

 ...READING SWR1 PROCESS DATASET 4C

 ...READING SWR1 PROCESS DATASET 4D


 SWR TABULAR DATA:
 TYPE                  FILE UNIT INTERPOLATION        REACHES
 ----------------------------------------------------------------------------------
 LATERAL INFLOW              201 INTERPOLATE              1
1
                            STRESS PERIOD NO.    1, LENGTH =   86400.00    
                            -----------------------------------------------

                              NUMBER OF TIME STEPS =   144

                               MULTIPLIER FOR DELT =     1.000

                            INITIAL TIME STEP SIZE =   600.0000    


 STEADY-STATE STRESS PERIOD

 ...READING SWR1 PROCESS DATASET 5

 ...READING SWR1 PROCESS DATASET 6


  SUMMARY OF SWR REACH BOUNDARY CONDITIONS
        IRG   INACTIVE   CONSTANT     ACTIVE
 ---------- ---------- ---------- ----------
          1          0          0          1
          2          0          0          1
          3          0          0          1
          4          0          0          1
          5          0          0          1
          6          0          0          1
          7          0          0          1
          8          0          0          1
          9          0          0          1
         10          0          0          1
         11          0          0          1
         12          0          0          1
         13          0          0          1
         14          0          0          1
         15          0          0          1
         16          0          0          1
         17          0          0          1
         18          0          0          1
         19          0          0          1
         20          0          0          1
         21          0          1          0


                         CONSTANT STAGE/INACTIVE REACH GROUPS
 ------------------------------------------------------------------------------------------
 REACH GROUP =    21 IS DEFINED AS A CONSTANT STAGE ELEMENT

 SURFACE-WATER ROUTING BOUNDARY DATA 
      REACH    ISWRBND BND TYPE       
 ------------------------------------
          1          1 ACTIVE         
          2          1 ACTIVE         
          3          1 ACTIVE         
          4          1 ACTIVE         
          5          1 ACTIVE         
          6          1 ACTIVE         
          7          1 ACTIVE         
          8          1 ACTIVE         
          9          1 ACTIVE         
         10          1 ACTIVE         
         11          1 ACTIVE         
         12          1 ACTIVE         
         13          1 ACTIVE         
         14          1 ACTIVE         
         15          1 ACTIVE         
         16          1 ACTIVE         
         17          1 ACTIVE         
         18          1 ACTIVE         
         19          1 ACTIVE         
         20          1 ACTIVE         
         21         -1 CONSTANT STAGE 

 ...READING SWR1 PROCESS DATASET 10

 ...READING SWR1 PROCESS DATASET 11


 SURFACE-WATER ROUTING GENERIC GEOMETRY DATA FOR STRESS PERIOD         1

   GEO ITEM    IGEONUM   IGEOTYPE    IGCNDOP    NGEOPTS   GMANNING     GWIDTH     GBELEV    GSSLOPE   CONDUCT.   LEAKANCE     GCNDLN    GETEXTD
 ----------------------------------------------------------------------------------------------------------------------------------------------
          1          1          2          0          1  0.125E-01   10.0       0.00       2.00       0.00                                     


 REACH RATING CURVE DATA FOR STRESS PERIOD
 ------------------------------------------------------------------------------------------

 REACH   =     1
 LAYSTR  =     1
 LAYEND  =     1
          N   ELEVATION [L]  XSECTAREA [L2]     VOLUME [L3] WET. PERIM. [L]   TOP WIDTH [L] SURF. AREA [L2]
 ---------- --------------- --------------- --------------- --------------- --------------- ---------------
          1    2.050000        0.000000        0.000000        0.000000        0.000000        0.000000    
          2    2.050001       0.1000000E-04   0.1000000E-01    10.00000        10.00000        10000.00    
          3    2.345001        2.993524        2993.524        10.65964        10.29500        10295.00    
          4    2.640001        6.074063        6074.063        11.31928        10.59000        10590.00    
          5    2.935001        9.241627        9241.627        11.97892        10.88500        10885.00    
          6    3.230001        12.49622        12496.22        12.63856        11.18000        11180.00    
          7    3.525002        15.83783        15837.83        13.29820        11.47500        11475.00    
          8    3.820002        19.26647        19266.47        13.95784        11.77000        11770.00    
          9    4.115002        22.78213        22782.13        14.61748        12.06500        12065.00    
         10    4.410002        26.38482        26384.82        15.27712        12.36000        12360.00    
         11    4.705002        30.07454        30074.54        15.93676        12.65500        12655.00    
         12    5.000000        33.85125        33851.25        16.59640        12.95000        12950.00    
         13    5.000001        33.85126        33851.26        16.59640        12.95000        12950.00    
         14    15.00000        163.3512        163351.2        16.59640        12.95000        12950.00    

 REACH   =     2
 LAYSTR  =     1
 LAYEND  =     1
          N   ELEVATION [L]  XSECTAREA [L2]     VOLUME [L3] WET. PERIM. [L]   TOP WIDTH [L] SURF. AREA [L2]
 ---------- --------------- --------------- --------------- --------------- --------------- ---------------
          1    1.950000        0.000000        0.000000        0.000000        0.000000        0.000000    
          2    1.950001       0.1000000E-04   0.1000000E-01    10.00000        10.00000        10000.00    
          3    2.255001        3.096524        3096.524        10.68200        10.30500        10305.00    
          4    2.560001        6.286063        6286.063        11.36400        10.61000        10610.00    
          5    2.865001        9.568627        9568.627        12.04601        10.91500        10915.00    
          6    3.170001        12.94422        12944.22        12.72801        11.22000        11220.00    
          7    3.475001        16.41283        16412.83        13.41001        11.52500        11525.00    
          8    3.780002        19.97447        19974.47        14.09201        11.83000        11830.00    
          9    4.085002        23.62913        23629.13        14.77401        12.13500        12135.00    
         10    4.390002        27.37682        27376.82        15.45601        12.44000        12440.00    
         11    4.695002        31.21754        31217.54        16.13801        12.74500        12745.00    
         12    5.000000        35.15125        35151.25        16.82001        13.05000        13050.00    
         13    5.000001        35.15126        35151.26        16.82001        13.05000        13050.00    
         14    15.00000        165.6513        165651.3        16.82001        13.05000        13050.00    

 REACH   =     3
 LAYSTR  =     1
 LAYEND  =     1
          N   ELEVATION [L]  XSECTAREA [L2]     VOLUME [L3] WET. PERIM. [L]   TOP WIDTH [L] SURF. AREA [L2]
 ---------- --------------- --------------- --------------- --------------- --------------- ---------------
          1    1.850000        0.000000        0.000000        0.000000        0.000000        0.000000    
          2    1.850001       0.1000000E-04   0.1000000E-01    10.00000        10.00000        10000.00    
          3    2.165001        3.199624        3199.624        10.70436        10.31500        10315.00    
          4    2.480001        6.498463        6498.463        11.40873        10.63000        10630.00    
          5    2.795001        9.896527        9896.527        12.11309        10.94500        10945.00    
          6    3.110001        13.39382        13393.82        12.81745        11.26000        11260.00    
          7    3.425001        16.99033        16990.33        13.52181        11.57500        11575.00    
          8    3.740002        20.68607        20686.07        14.22617        11.89000        11890.00    
          9    4.055002        24.48103        24481.03        14.93053        12.20500        12205.00    
         10    4.370002        28.37522        28375.22        15.63490        12.52000        12520.00    
         11    4.685002        32.36864        32368.64        16.33926        12.83500        12835.00    
         12    5.000000        36.46125        36461.25        17.04361        13.15000        13150.00    
         13    5.000001        36.46126        36461.26        17.04361        13.15000        13150.00    
         14    15.00000        167.9612        167961.2        17.04361        13.15000        13150.00    

 REACH   =     4
 LAYSTR  =     1
 LAYEND  =     1
          N   ELEVATION [L]  XSECTAREA [L2]     VOLUME [L3] WET. PERIM. [L]   TOP WIDTH [L] SURF. AREA [L2]
 ---------- --------------- --------------- --------------- --------------- --------------- ---------------
          1    1.750000        0.000000        0.000000        0.000000        0.000000        0.000000    
          2    1.750001       0.1000000E-04   0.1000000E-01    10.00000        10.00000        10000.00    
          3    2.075001        3.302824        3302.824        10.72672        10.32500        10325.00    
          4    2.400001        6.711263        6711.263        11.45345        10.65000        10650.00    
          5    2.725001        10.22533        10225.33        12.18017        10.97500        10975.00    
          6    3.050001        13.84502        13845.02        12.90689        11.30000        11300.00    
          7    3.375001        17.57033        17570.33        13.63361        11.62500        11625.00    
          8    3.700002        21.40127        21401.27        14.36034        11.95000        11950.00    
          9    4.025002        25.33783        25337.83        15.08706        12.27500        12275.00    
         10    4.350002        29.38002        29380.02        15.81378        12.60000        12600.00    
         11    4.675002        33.52784        33527.84        16.54050        12.92500        12925.00    
         12    5.000000        37.78125        37781.25        17.26722        13.25000        13250.00    
         13    5.000001        37.78126        37781.26        17.26722        13.25000        13250.00    
         14    15.00000        170.2812        170281.2        17.26722        13.25000        13250.00    

 REACH   =     5
 LAYSTR  =     1
 LAYEND  =     1
          N   ELEVATION [L]  XSECTAREA [L2]     VOLUME [L3] WET. PERIM. [L]   TOP WIDTH [L] SURF. AREA [L2]
 ---------- --------------- --------------- --------------- --------------- --------------- ---------------
          1    1.650000        0.000000        0.000000        0.000000        0.000000        0.000000    
          2    1.650001       0.1000000E-04   0.1000000E-01    10.00000        10.00000        10000.00    
          3    1.985001        3.406124        3406.124        10.74909        10.33500        10335.00    
          4    2.320001        6.924463        6924.463        11.49817        10.67000        10670.00    
          5    2.655001        10.55503        10555.03        12.24725        11.00500        11005.00    
          6    2.990001        14.29782        14297.82        12.99633        11.34000        11340.00    
          7    3.325002        18.15283        18152.83        13.74542        11.67500        11675.00    
          8    3.660002        22.12007        22120.07        14.49450        12.01000        12010.00    
          9    3.995002        26.19953        26199.53        15.24358        12.34500        12345.00    
         10    4.330002        30.39122        30391.22        15.99267        12.68000        12680.00    
         11    4.665002        34.69514        34695.14        16.74175        13.01500        13015.00    
         12    5.000000        39.11125        39111.25        17.49083        13.35000        13350.00    
         13    5.000001        39.11126        39111.26        17.49083        13.35000        13350.00    
         14    15.00000        172.6112        172611.2        17.49083        13.35000        13350.00    

 REACH   =     6
 LAYSTR  =     1
 LAYEND  =     1
          N   ELEVATION [L]  XSECTAREA [L2]     VOLUME [L3] WET. PERIM. [L]   TOP WIDTH [L] SURF. AREA [L2]
 ---------- --------------- --------------- --------------- --------------- --------------- ---------------
          1    1.550000        0.000000        0.000000        0.000000        0.000000        0.000000    
          2    1.550001       0.1000000E-04   0.1000000E-01    10.00000        10.00000        10000.00    
          3    1.895001        3.509524        3509.524        10.77145        10.34500        10345.00    
          4    2.240001        7.138063        7138.063        11.54289        10.69000        10690.00    
          5    2.585001        10.88563        10885.63        12.31433        11.03500        11035.00    
          6    2.930001        14.75222        14752.22        13.08578        11.38000        11380.00    
          7    3.275002        18.73783        18737.83        13.85722        11.72500        11725.00    
          8    3.620002        22.84247        22842.47        14.62866        12.07000        12070.00    
          9    3.965002        27.06613        27066.13        15.40011        12.41500        12415.00    
         10    4.310002        31.40882        31408.82        16.17155        12.76000        12760.00    
         11    4.655002        35.87054        35870.54        16.94300        13.10500        13105.00    
         12    5.000000        40.45125        40451.25        17.71443        13.45000        13450.00    
         13    5.000001        40.45126        40451.26        17.71443        13.45000        13450.00    
         14    15.00000        174.9512        174951.2        17.71443        13.45000        13450.00    

 REACH   =     7
 LAYSTR  =     1
 LAYEND  =     1
          N   ELEVATION [L]  XSECTAREA [L2]     VOLUME [L3] WET. PERIM. [L]   TOP WIDTH [L] SURF. AREA [L2]
 ---------- --------------- --------------- --------------- --------------- --------------- ---------------
          1    1.450000        0.000000        0.000000        0.000000        0.000000        0.000000    
          2    1.450001       0.1000000E-04   0.1000000E-01    10.00000        10.00000        10000.00    
          3    1.805001        3.613024        3613.024        10.79381        10.35500        10355.00    
          4    2.160001        7.352063        7352.063        11.58761        10.71000        10710.00    
          5    2.515001        11.21713        11217.13        12.38142        11.06500        11065.00    
          6    2.870001        15.20822        15208.22        13.17522        11.42000        11420.00    
          7    3.225001        19.32533        19325.33        13.96902        11.77500        11775.00    
          8    3.580002        23.56847        23568.47        14.76283        12.13000        12130.00    
          9    3.935002        27.93763        27937.63        15.55663        12.48500        12485.00    
         10    4.290002        32.43282        32432.82        16.35044        12.84000        12840.00    
         11    4.645002        37.05404        37054.04        17.14424        13.19500        13195.00    
         12    5.000000        41.80125        41801.25        17.93804        13.55000        13550.00    
         13    5.000001        41.80126        41801.26        17.93804        13.55000        13550.00    
         14    15.00000        177.3012        177301.2        17.93804        13.55000        13550.00    

 REACH   =     8
 LAYSTR  =     1
 LAYEND  =     1
          N   ELEVATION [L]  XSECTAREA [L2]     VOLUME [L3] WET. PERIM. [L]   TOP WIDTH [L] SURF. AREA [L2]
 ---------- --------------- --------------- --------------- --------------- --------------- ---------------
          1    1.350000        0.000000        0.000000        0.000000        0.000000        0.000000    
          2    1.350001       0.1000000E-04   0.1000000E-01    10.00000        10.00000        10000.00    
          3    1.715001        3.716624        3716.624        10.81617        10.36500        10365.00    
          4    2.080001        7.566463        7566.463        11.63233        10.73000        10730.00    
          5    2.445001        11.54953        11549.53        12.44850        11.09500        11095.00    
          6    2.810001        15.66582        15665.82        13.26466        11.46000        11460.00    
          7    3.175002        19.91533        19915.33        14.08083        11.82500        11825.00    
          8    3.540002        24.29807        24298.07        14.89699        12.19000        12190.00    
          9    3.905002        28.81403        28814.03        15.71316        12.55500        12555.00    
         10    4.270002        33.46322        33463.22        16.52932        12.92000        12920.00    
         11    4.635002        38.24564        38245.64        17.34549        13.28500        13285.00    
         12    5.000000        43.16125        43161.25        18.16165        13.65000        13650.00    
         13    5.000001        43.16126        43161.26        18.16165        13.65000        13650.00    
         14    15.00000        179.6612        179661.2        18.16165        13.65000        13650.00    

 REACH   =     9
 LAYSTR  =     1
 LAYEND  =     1
          N   ELEVATION [L]  XSECTAREA [L2]     VOLUME [L3] WET. PERIM. [L]   TOP WIDTH [L] SURF. AREA [L2]
 ---------- --------------- --------------- --------------- --------------- --------------- ---------------
          1    1.250000        0.000000        0.000000        0.000000        0.000000        0.000000    
          2    1.250001       0.1000000E-04   0.1000000E-01    10.00000        10.00000        10000.00    
          3    1.625001        3.820324        3820.324        10.83853        10.37500        10375.00    
          4    2.000001        7.781263        7781.263        11.67705        10.75000        10750.00    
          5    2.375001        11.88283        11882.83        12.51558        11.12500        11125.00    
          6    2.750001        16.12502        16125.02        13.35411        11.50000        11500.00    
          7    3.125001        20.50783        20507.83        14.19263        11.87500        11875.00    
          8    3.500002        25.03127        25031.27        15.03116        12.25000        12250.00    
          9    3.875002        29.69533        29695.33        15.86968        12.62500        12625.00    
         10    4.250002        34.50002        34500.02        16.70821        13.00000        13000.00    
         11    4.625002        39.44534        39445.34        17.54673        13.37500        13375.00    
         12    5.000000        44.53125        44531.25        18.38525        13.75000        13750.00    
         13    5.000001        44.53126        44531.26        18.38525        13.75000        13750.00    
         14    15.00000        182.0312        182031.2        18.38525        13.75000        13750.00    

 REACH   =    10
 LAYSTR  =     1
 LAYEND  =     1
          N   ELEVATION [L]  XSECTAREA [L2]     VOLUME [L3] WET. PERIM. [L]   TOP WIDTH [L] SURF. AREA [L2]
 ---------- --------------- --------------- --------------- --------------- --------------- ---------------
          1    1.150000        0.000000        0.000000        0.000000        0.000000        0.000000    
          2    1.150001       0.1000000E-04   0.1000000E-01    10.00000        10.00000        10000.00    
          3    1.535001        3.924124        3924.124        10.86089        10.38500        10385.00    
          4    1.920001        7.996463        7996.463        11.72178        10.77000        10770.00    
          5    2.305001        12.21703        12217.03        12.58266        11.15500        11155.00    
          6    2.690001        16.58582        16585.82        13.44355        11.54000        11540.00    
          7    3.075001        21.10283        21102.83        14.30443        11.92500        11925.00    
          8    3.460002        25.76807        25768.07        15.16532        12.31000        12310.00    
          9    3.845002        30.58153        30581.53        16.02621        12.69500        12695.00    
         10    4.230002        35.54322        35543.22        16.88709        13.08000        13080.00    
         11    4.615002        40.65314        40653.14        17.74798        13.46500        13465.00    
         12    5.000000        45.91125        45911.25        18.60886        13.85000        13850.00    
         13    5.000001        45.91126        45911.26        18.60886        13.85000        13850.00    
         14    15.00000        184.4112        184411.2        18.60886        13.85000        13850.00    

 REACH   =    11
 LAYSTR  =     1
 LAYEND  =     1
          N   ELEVATION [L]  XSECTAREA [L2]     VOLUME [L3] WET. PERIM. [L]   TOP WIDTH [L] SURF. AREA [L2]
 ---------- --------------- --------------- --------------- --------------- --------------- ---------------
          1    1.050000        0.000000        0.000000        0.000000        0.000000        0.000000    
          2    1.050001       0.1000000E-04   0.1000000E-01    10.00000        10.00000        10000.00    
          3    1.445001        4.028024        4028.024        10.88325        10.39500        10395.00    
          4    1.840001        8.212063        8212.063        11.76650        10.79000        10790.00    
          5    2.235001        12.55213        12552.13        12.64974        11.18500        11185.00    
          6    2.630001        17.04822        17048.22        13.53299        11.58000        11580.00    
          7    3.025001        21.70033        21700.33        14.41624        11.97500        11975.00    
          8    3.420002        26.50847        26508.47        15.29948        12.37000        12370.00    
          9    3.815002        31.47263        31472.63        16.18273        12.76500        12765.00    
         10    4.210002        36.59282        36592.82        17.06598        13.16000        13160.00    
         11    4.605002        41.86904        41869.04        17.94923        13.55500        13555.00    
         12    5.000000        47.30125        47301.25        18.83247        13.95000        13950.00    
         13    5.000001        47.30126        47301.26        18.83247        13.95000        13950.00    
         14    15.00000        186.8013        186801.3        18.83247        13.95000        13950.00    

 REACH   =    12
 LAYSTR  =     1
 LAYEND  =     1
          N   ELEVATION [L]  XSECTAREA [L2]     VOLUME [L3] WET. PERIM. [L]   TOP WIDTH [L] SURF. AREA [L2]
 ---------- --------------- --------------- --------------- --------------- --------------- ---------------
          1   0.9500000        0.000000        0.000000        0.000000        0.000000        0.000000    
          2   0.9500010       0.1000000E-04   0.1000000E-01    10.00000        10.00000        10000.00    
          3    1.355001        4.132024        4132.024        10.90561        10.40500        10405.00    
          4    1.760001        8.428063        8428.063        11.81122        10.81000        10810.00    
          5    2.165001        12.88813        12888.13        12.71683        11.21500        11215.00    
          6    2.570001        17.51222        17512.22        13.62243        11.62000        11620.00    
          7    2.975002        22.30033        22300.33        14.52804        12.02500        12025.00    
          8    3.380002        27.25247        27252.47        15.43365        12.43000        12430.00    
          9    3.785002        32.36863        32368.63        16.33926        12.83500        12835.00    
         10    4.190002        37.64882        37648.82        17.24486        13.24000        13240.00    
         11    4.595002        43.09304        43093.04        18.15047        13.64500        13645.00    
         12    5.000000        48.70125        48701.25        19.05608        14.05000        14050.00    
         13    5.000001        48.70126        48701.26        19.05608        14.05000        14050.00    
         14    15.00000        189.2013        189201.3        19.05608        14.05000        14050.00    

 REACH   =    13
 LAYSTR  =     1
 LAYEND  =     1
          N   ELEVATION [L]  XSECTAREA [L2]     VOLUME [L3] WET. PERIM. [L]   TOP WIDTH [L] SURF. AREA [L2]
 ---------- --------------- --------------- --------------- --------------- --------------- ---------------
          1   0.8500000        0.000000        0.000000        0.000000        0.000000        0.000000    
          2   0.8500010       0.1000000E-04   0.1000000E-01    10.00000        10.00000        10000.00    
          3    1.265001        4.236124        4236.124        10.92797        10.41500        10415.00    
          4    1.680001        8.644463        8644.463        11.85594        10.83000        10830.00    
          5    2.095001        13.22503        13225.03        12.78391        11.24500        11245.00    
          6    2.510001        17.97782        17977.82        13.71188        11.66000        11660.00    
          7    2.925002        22.90283        22902.83        14.63984        12.07500        12075.00    
          8    3.340002        28.00007        28000.07        15.56781        12.49000        12490.00    
          9    3.755002        33.26953        33269.53        16.49578        12.90500        12905.00    
         10    4.170002        38.71122        38711.22        17.42375        13.32000        13320.00    
         11    4.585002        44.32514        44325.14        18.35172        13.73500        13735.00    
         12    5.000000        50.11125        50111.25        19.27968        14.15000        14150.00    
         13    5.000001        50.11126        50111.26        19.27968        14.15000        14150.00    
         14    15.00000        191.6113        191611.2        19.27968        14.15000        14150.00    

 REACH   =    14
 LAYSTR  =     1
 LAYEND  =     1
          N   ELEVATION [L]  XSECTAREA [L2]     VOLUME [L3] WET. PERIM. [L]   TOP WIDTH [L] SURF. AREA [L2]
 ---------- --------------- --------------- --------------- --------------- --------------- ---------------
          1   0.7500000        0.000000        0.000000        0.000000        0.000000        0.000000    
          2   0.7500010       0.1000000E-04   0.1000000E-01    10.00000        10.00000        10000.00    
          3    1.175001        4.340324        4340.324        10.95033        10.42500        10425.00    
          4    1.600001        8.861263        8861.263        11.90066        10.85000        10850.00    
          5    2.025001        13.56283        13562.83        12.85099        11.27500        11275.00    
          6    2.450001        18.44502        18445.02        13.80132        11.70000        11700.00    
          7    2.875002        23.50783        23507.83        14.75165        12.12500        12125.00    
          8    3.300002        28.75127        28751.27        15.70198        12.55000        12550.00    
          9    3.725002        34.17533        34175.33        16.65231        12.97500        12975.00    
         10    4.150002        39.78002        39780.02        17.60264        13.40000        13400.00    
         11    4.575002        45.56534        45565.34        18.55296        13.82500        13825.00    
         12    5.000000        51.53125        51531.25        19.50329        14.25000        14250.00    
         13    5.000001        51.53126        51531.26        19.50329        14.25000        14250.00    
         14    15.00000        194.0312        194031.2        19.50329        14.25000        14250.00    

 REACH   =    15
 LAYSTR  =     1
 LAYEND  =     1
          N   ELEVATION [L]  XSECTAREA [L2]     VOLUME [L3] WET. PERIM. [L]   TOP WIDTH [L] SURF. AREA [L2]
 ---------- --------------- --------------- --------------- --------------- --------------- ---------------
          1   0.6500000        0.000000        0.000000        0.000000        0.000000        0.000000    
          2   0.6500010       0.1000000E-04   0.1000000E-01    10.00000        10.00000        10000.00    
          3    1.085001        4.444624        4444.624        10.97269        10.43500        10435.00    
          4    1.520001        9.078463        9078.463        11.94538        10.87000        10870.00    
          5    1.955001        13.90153        13901.53        12.91807        11.30500        11305.00    
          6    2.390001        18.91382        18913.82        13.89076        11.74000        11740.00    
          7    2.825001        24.11533        24115.33        14.86345        12.17500        12175.00    
          8    3.260002        29.50607        29506.07        15.83614        12.61000        12610.00    
          9    3.695002        35.08603        35086.03        16.80883        13.04500        13045.00    
         10    4.130002        40.85522        40855.22        17.78152        13.48000        13480.00    
         11    4.565002        46.81364        46813.64        18.75421        13.91500        13915.00    
         12    5.000000        52.96125        52961.25        19.72690        14.35000        14350.00    
         13    5.000001        52.96126        52961.26        19.72690        14.35000        14350.00    
         14    15.00000        196.4612        196461.2        19.72690        14.35000        14350.00    

 REACH   =    16
 LAYSTR  =     1
 LAYEND  =     1
          N   ELEVATION [L]  XSECTAREA [L2]     VOLUME [L3] WET. PERIM. [L]   TOP WIDTH [L] SURF. AREA [L2]
 ---------- --------------- --------------- --------------- --------------- --------------- ---------------
          1   0.5500000        0.000000        0.000000        0.000000        0.000000        0.000000    
          2   0.5500010       0.1000000E-04   0.1000000E-01    10.00000        10.00000        10000.00    
          3   0.9950011        4.549024        4549.024        10.99505        10.44500        10445.00    
          4    1.440001        9.296063        9296.063        11.99010        10.89000        10890.00    
          5    1.885001        14.24113        14241.13        12.98515        11.33500        11335.00    
          6    2.330001        19.38422        19384.22        13.98020        11.78000        11780.00    
          7    2.775002        24.72533        24725.33        14.97525        12.22500        12225.00    
          8    3.220002        30.26447        30264.47        15.97031        12.67000        12670.00    
          9    3.665002        36.00163        36001.63        16.96536        13.11500        13115.00    
         10    4.110002        41.93682        41936.82        17.96041        13.56000        13560.00    
         11    4.555002        48.07004        48070.04        18.95546        14.00500        14005.00    
         12    5.000000        54.40125        54401.25        19.95050        14.45000        14450.00    
         13    5.000001        54.40126        54401.26        19.95050        14.45000        14450.00    
         14    15.00000        198.9012        198901.2        19.95050        14.45000        14450.00    

 REACH   =    17
 LAYSTR  =     1
 LAYEND  =     1
          N   ELEVATION [L]  XSECTAREA [L2]     VOLUME [L3] WET. PERIM. [L]   TOP WIDTH [L] SURF. AREA [L2]
 ---------- --------------- --------------- --------------- --------------- --------------- ---------------
          1   0.4500000        0.000000        0.000000        0.000000        0.000000        0.000000    
          2   0.4500010       0.1000000E-04   0.1000000E-01    10.00000        10.00000        10000.00    
          3   0.9050011        4.653524        4653.524        11.01741        10.45500        10455.00    
          4    1.360001        9.514063        9514.063        12.03482        10.91000        10910.00    
          5    1.815001        14.58163        14581.63        13.05224        11.36500        11365.00    
          6    2.270001        19.85622        19856.22        14.06965        11.82000        11820.00    
          7    2.725001        25.33783        25337.83        15.08706        12.27500        12275.00    
          8    3.180002        31.02647        31026.47        16.10447        12.73000        12730.00    
          9    3.635002        36.92213        36922.13        17.12188        13.18500        13185.00    
         10    4.090002        43.02482        43024.82        18.13929        13.64000        13640.00    
         11    4.545002        49.33454        49334.54        19.15670        14.09500        14095.00    
         12    5.000000        55.85125        55851.25        20.17411        14.55000        14550.00    
         13    5.000001        55.85126        55851.26        20.17411        14.55000        14550.00    
         14    15.00000        201.3512        201351.2        20.17411        14.55000        14550.00    

 REACH   =    18
 LAYSTR  =     1
 LAYEND  =     1
          N   ELEVATION [L]  XSECTAREA [L2]     VOLUME [L3] WET. PERIM. [L]   TOP WIDTH [L] SURF. AREA [L2]
 ---------- --------------- --------------- --------------- --------------- --------------- ---------------
          1   0.3500000        0.000000        0.000000        0.000000        0.000000        0.000000    
          2   0.3500010       0.1000000E-04   0.1000000E-01    10.00000        10.00000        10000.00    
          3   0.8150011        4.758124        4758.124        11.03977        10.46500        10465.00    
          4    1.280001        9.732463        9732.463        12.07955        10.93000        10930.00    
          5    1.745001        14.92303        14923.03        13.11932        11.39500        11395.00    
          6    2.210001        20.32982        20329.82        14.15909        11.86000        11860.00    
          7    2.675002        25.95283        25952.83        15.19886        12.32500        12325.00    
          8    3.140002        31.79207        31792.07        16.23863        12.79000        12790.00    
          9    3.605002        37.84754        37847.54        17.27841        13.25500        13255.00    
         10    4.070002        44.11922        44119.22        18.31818        13.72000        13720.00    
         11    4.535002        50.60714        50607.14        19.35795        14.18500        14185.00    
         12    5.000000        57.31125        57311.25        20.39772        14.65000        14650.00    
         13    5.000001        57.31126        57311.26        20.39772        14.65000        14650.00    
         14    15.00000        203.8113        203811.3        20.39772        14.65000        14650.00    

 REACH   =    19
 LAYSTR  =     1
 LAYEND  =     1
          N   ELEVATION [L]  XSECTAREA [L2]     VOLUME [L3] WET. PERIM. [L]   TOP WIDTH [L] SURF. AREA [L2]
 ---------- --------------- --------------- --------------- --------------- --------------- ---------------
          1   0.2500000        0.000000        0.000000        0.000000        0.000000        0.000000    
          2   0.2500010       0.1000000E-04   0.1000000E-01    10.00000        10.00000        10000.00    
          3   0.7250011        4.862824        4862.824        11.06213        10.47500        10475.00    
          4    1.200001        9.951263        9951.263        12.12427        10.95000        10950.00    
          5    1.675001        15.26533        15265.33        13.18640        11.42500        11425.00    
          6    2.150001        20.80502        20805.02        14.24853        11.90000        11900.00    
          7    2.625001        26.57033        26570.33        15.31066        12.37500        12375.00    
          8    3.100002        32.56127        32561.27        16.37280        12.85000        12850.00    
          9    3.575002        38.77784        38777.84        17.43493        13.32500        13325.00    
         10    4.050002        45.22002        45220.02        18.49706        13.80000        13800.00    
         11    4.525002        51.88784        51887.84        19.55919        14.27500        14275.00    
         12    5.000000        58.78125        58781.25        20.62132        14.75000        14750.00    
         13    5.000001        58.78126        58781.26        20.62132        14.75000        14750.00    
         14    15.00000        206.2812        206281.2        20.62132        14.75000        14750.00    

 REACH   =    20
 LAYSTR  =     1
 LAYEND  =     1
          N   ELEVATION [L]  XSECTAREA [L2]     VOLUME [L3] WET. PERIM. [L]   TOP WIDTH [L] SURF. AREA [L2]
 ---------- --------------- --------------- --------------- --------------- --------------- ---------------
          1   0.1500000        0.000000        0.000000        0.000000        0.000000        0.000000    
          2   0.1500010       0.1000000E-04   0.1000000E-01    10.00000        10.00000        10000.00    
          3   0.6350011        4.967624        4967.624        11.08450        10.48500        10485.00    
          4    1.120001        10.17046        10170.46        12.16899        10.97000        10970.00    
          5    1.605001        15.60853        15608.53        13.25348        11.45500        11455.00    
          6    2.090001        21.28182        21281.82        14.33798        11.94000        11940.00    
          7    2.575001        27.19033        27190.33        15.42247        12.42500        12425.00    
          8    3.060002        33.33407        33334.07        16.50696        12.91000        12910.00    
          9    3.545002        39.71304        39713.04        17.59145        13.39500        13395.00    
         10    4.030002        46.32722        46327.22        18.67595        13.88000        13880.00    
         11    4.515002        53.17664        53176.64        19.76044        14.36500        14365.00    
         12    5.000000        60.26125        60261.25        20.84493        14.85000        14850.00    
         13    5.000001        60.26126        60261.26        20.84493        14.85000        14850.00    
         14    15.00000        208.7613        208761.3        20.84493        14.85000        14850.00    

 REACH   =    21
 LAYSTR  =     1
 LAYEND  =     1
          N   ELEVATION [L]  XSECTAREA [L2]     VOLUME [L3] WET. PERIM. [L]   TOP WIDTH [L] SURF. AREA [L2]
 ---------- --------------- --------------- --------------- --------------- --------------- ---------------
          1   0.5000000E-01    0.000000        0.000000        0.000000        0.000000        0.000000    
          2   0.5000100E-01   0.1000000E-04   0.1000000E-01    10.00000        10.00000        10000.00    
          3   0.5450011        5.072524        5072.524        11.10686        10.49500        10495.00    
          4    1.040001        10.39006        10390.06        12.21371        10.99000        10990.00    
          5    1.535001        15.95263        15952.63        13.32056        11.48500        11485.00    
          6    2.030001        21.76022        21760.22        14.42742        11.98000        11980.00    
          7    2.525002        27.81283        27812.83        15.53427        12.47500        12475.00    
          8    3.020002        34.11047        34110.47        16.64113        12.97000        12970.00    
          9    3.515002        40.65314        40653.14        17.74798        13.46500        13465.00    
         10    4.010002        47.44083        47440.83        18.85483        13.96000        13960.00    
         11    4.505002        54.47354        54473.54        19.96169        14.45500        14455.00    
         12    5.000000        61.75125        61751.25        21.06854        14.95000        14950.00    
         13    5.000001        61.75126        61751.26        21.06854        14.95000        14950.00    
         14    15.00000        211.2513        211251.3        21.06854        14.95000        14950.00    

 ...READING SWR1 PROCESS DATASET 14A


 STAGE DATA FOR STRESS PERIOD          1
 REACH      STAGE     STATUS
 ---------------------------
     1   6.05            RAW
     2   5.95            RAW
     3   5.85            RAW
     4   5.75            RAW
     5   5.65            RAW
     6   5.55            RAW
     7   5.45            RAW
     8   5.35            RAW
     9   5.25            RAW
    10   5.15            RAW
    11   5.05            RAW
    12   4.95            RAW
    13   4.85            RAW
    14   4.75            RAW
    15   4.65            RAW
    16   4.55            RAW
    17   4.45            RAW
    18   4.35            RAW
    19   4.25            RAW
    20   4.15            RAW
    21   4.05            RAW


 REACH OFFSETS FOR STRESS PERIOD
          1          2          3          4          5          6          7          8          9         10
         11         12         13         14         15         16         17         18         19         20
         21
 -------------------------------------------------------------------------------------------------------------
     0.0000     0.0000     0.0000     0.0000     0.0000     0.0000     0.0000     0.0000     0.0000     0.0000
     0.0000     0.0000     0.0000     0.0000     0.0000     0.0000     0.0000     0.0000     0.0000     0.0000
     0.0000


 DOWNSTREAM REACH FOR EACH REACH GROUP (RCHGRP) FOR STRESS PERIOD
 -----------------------------------------------------------------------------------
 RG0001 =    1 RG0002 =    2 RG0003 =    3 RG0004 =    4 RG0005 =    5 RG0006 =    6
 RG0007 =    7 RG0008 =    8 RG0009 =    9 RG0010 =   10 RG0011 =   11 RG0012 =   12
 RG0013 =   13 RG0014 =   14 RG0015 =   15 RG0016 =   16 RG0017 =   17 RG0018 =   18
 RG0019 =   19 RG0020 =   20 RG0021 =   21


 NEW RATING CURVE FOR REACH GROUPS FOR STRESS PERIOD
 ------------------------------------------------------------------------------------------

 REACH GROUP =     1 GROUP =     1

          N   ELEVATION [L]       DEPTH [L]     VOLUME [L3]
 ---------- --------------- --------------- ---------------
          1    2.050000        0.000000        0.000000    
          2    2.050001       0.1000000E-05   0.1000000E-01
          3    2.345001       0.2950011        2993.524    
          4    2.640001       0.5900012        6074.063    
          5    2.935001       0.8850013        9241.627    
          6    3.230001        1.180001        12496.22    
          7    3.525002        1.475002        15837.83    
          8    3.820002        1.770002        19266.47    
          9    4.115002        2.065002        22782.13    
         10    4.410002        2.360002        26384.82    
         11    4.705002        2.655002        30074.54    
         12    5.000000        2.950000        33851.25    
         13    5.000001        2.950001        33851.26    
         14    15.00000        12.95000        163351.2    

 REACH GROUP =     2 GROUP =     2

          N   ELEVATION [L]       DEPTH [L]     VOLUME [L3]
 ---------- --------------- --------------- ---------------
          1    1.950000        0.000000        0.000000    
          2    1.950001       0.1000000E-05   0.1000000E-01
          3    2.255001       0.3050011        3096.524    
          4    2.560001       0.6100012        6286.063    
          5    2.865001       0.9150013        9568.627    
          6    3.170001        1.220001        12944.22    
          7    3.475001        1.525001        16412.83    
          8    3.780002        1.830002        19974.47    
          9    4.085002        2.135002        23629.13    
         10    4.390002        2.440002        27376.82    
         11    4.695002        2.745002        31217.54    
         12    5.000000        3.050000        35151.25    
         13    5.000001        3.050001        35151.26    
         14    15.00000        13.05000        165651.3    

 REACH GROUP =     3 GROUP =     3

          N   ELEVATION [L]       DEPTH [L]     VOLUME [L3]
 ---------- --------------- --------------- ---------------
          1    1.850000        0.000000        0.000000    
          2    1.850001       0.1000000E-05   0.1000000E-01
          3    2.165001       0.3150011        3199.624    
          4    2.480001       0.6300012        6498.463    
          5    2.795001       0.9450013        9896.527    
          6    3.110001        1.260001        13393.82    
          7    3.425001        1.575001        16990.33    
          8    3.740002        1.890002        20686.07    
          9    4.055002        2.205002        24481.03    
         10    4.370002        2.520002        28375.22    
         11    4.685002        2.835002        32368.64    
         12    5.000000        3.150000        36461.25    
         13    5.000001        3.150001        36461.26    
         14    15.00000        13.15000        167961.2    

 REACH GROUP =     4 GROUP =     4

          N   ELEVATION [L]       DEPTH [L]     VOLUME [L3]
 ---------- --------------- --------------- ---------------
          1    1.750000        0.000000        0.000000    
          2    1.750001       0.1000000E-05   0.1000000E-01
          3    2.075001       0.3250011        3302.824    
          4    2.400001       0.6500012        6711.263    
          5    2.725001       0.9750013        10225.33    
          6    3.050001        1.300001        13845.02    
          7    3.375001        1.625001        17570.33    
          8    3.700002        1.950002        21401.27    
          9    4.025002        2.275002        25337.83    
         10    4.350002        2.600002        29380.02    
         11    4.675002        2.925002        33527.84    
         12    5.000000        3.250000        37781.25    
         13    5.000001        3.250001        37781.26    
         14    15.00000        13.25000        170281.2    

 REACH GROUP =     5 GROUP =     5

          N   ELEVATION [L]       DEPTH [L]     VOLUME [L3]
 ---------- --------------- --------------- ---------------
          1    1.650000        0.000000        0.000000    
          2    1.650001       0.1000000E-05   0.1000000E-01
          3    1.985001       0.3350011        3406.124    
          4    2.320001       0.6700012        6924.463    
          5    2.655001        1.005001        10555.03    
          6    2.990001        1.340001        14297.82    
          7    3.325002        1.675002        18152.83    
          8    3.660002        2.010002        22120.07    
          9    3.995002        2.345002        26199.53    
         10    4.330002        2.680002        30391.22    
         11    4.665002        3.015002        34695.14    
         12    5.000000        3.350000        39111.25    
         13    5.000001        3.350001        39111.26    
         14    15.00000        13.35000        172611.2    

 REACH GROUP =     6 GROUP =     6

          N   ELEVATION [L]       DEPTH [L]     VOLUME [L3]
 ---------- --------------- --------------- ---------------
          1    1.550000        0.000000        0.000000    
          2    1.550001       0.1000000E-05   0.1000000E-01
          3    1.895001       0.3450011        3509.524    
          4    2.240001       0.6900012        7138.063    
          5    2.585001        1.035001        10885.63    
          6    2.930001        1.380001        14752.22    
          7    3.275002        1.725002        18737.83    
          8    3.620002        2.070002        22842.47    
          9    3.965002        2.415002        27066.13    
         10    4.310002        2.760002        31408.82    
         11    4.655002        3.105002        35870.54    
         12    5.000000        3.450000        40451.25    
         13    5.000001        3.450001        40451.26    
         14    15.00000        13.45000        174951.2    

 REACH GROUP =     7 GROUP =     7

          N   ELEVATION [L]       DEPTH [L]     VOLUME [L3]
 ---------- --------------- --------------- ---------------
          1    1.450000        0.000000        0.000000    
          2    1.450001       0.1000000E-05   0.1000000E-01
          3    1.805001       0.3550011        3613.024    
          4    2.160001       0.7100012        7352.063    
          5    2.515001        1.065001        11217.13    
          6    2.870001        1.420001        15208.22    
          7    3.225001        1.775001        19325.33    
          8    3.580002        2.130002        23568.47    
          9    3.935002        2.485002        27937.63    
         10    4.290002        2.840002        32432.82    
         11    4.645002        3.195002        37054.04    
         12    5.000000        3.550000        41801.25    
         13    5.000001        3.550001        41801.26    
         14    15.00000        13.55000        177301.2    

 REACH GROUP =     8 GROUP =     8

          N   ELEVATION [L]       DEPTH [L]     VOLUME [L3]
 ---------- --------------- --------------- ---------------
          1    1.350000        0.000000        0.000000    
          2    1.350001       0.1000000E-05   0.1000000E-01
          3    1.715001       0.3650011        3716.624    
          4    2.080001       0.7300012        7566.463    
          5    2.445001        1.095001        11549.53    
          6    2.810001        1.460001        15665.82    
          7    3.175002        1.825001        19915.33    
          8    3.540002        2.190002        24298.07    
          9    3.905002        2.555002        28814.03    
         10    4.270002        2.920002        33463.22    
         11    4.635002        3.285002        38245.64    
         12    5.000000        3.650000        43161.25    
         13    5.000001        3.650001        43161.26    
         14    15.00000        13.65000        179661.2    

 REACH GROUP =     9 GROUP =     9

          N   ELEVATION [L]       DEPTH [L]     VOLUME [L3]
 ---------- --------------- --------------- ---------------
          1    1.250000        0.000000        0.000000    
          2    1.250001       0.1000000E-05   0.1000000E-01
          3    1.625001       0.3750011        3820.324    
          4    2.000001       0.7500012        7781.263    
          5    2.375001        1.125001        11882.83    
          6    2.750001        1.500001        16125.02    
          7    3.125001        1.875001        20507.83    
          8    3.500002        2.250002        25031.27    
          9    3.875002        2.625002        29695.33    
         10    4.250002        3.000002        34500.02    
         11    4.625002        3.375002        39445.34    
         12    5.000000        3.750000        44531.25    
         13    5.000001        3.750001        44531.26    
         14    15.00000        13.75000        182031.2    

 REACH GROUP =    10 GROUP =    10

          N   ELEVATION [L]       DEPTH [L]     VOLUME [L3]
 ---------- --------------- --------------- ---------------
          1    1.150000        0.000000        0.000000    
          2    1.150001       0.1000000E-05   0.1000000E-01
          3    1.535001       0.3850011        3924.124    
          4    1.920001       0.7700012        7996.463    
          5    2.305001        1.155001        12217.03    
          6    2.690001        1.540001        16585.82    
          7    3.075001        1.925002        21102.83    
          8    3.460002        2.310002        25768.07    
          9    3.845002        2.695002        30581.53    
         10    4.230002        3.080002        35543.22    
         11    4.615002        3.465002        40653.14    
         12    5.000000        3.850000        45911.25    
         13    5.000001        3.850001        45911.26    
         14    15.00000        13.85000        184411.2    

 REACH GROUP =    11 GROUP =    11

          N   ELEVATION [L]       DEPTH [L]     VOLUME [L3]
 ---------- --------------- --------------- ---------------
          1    1.050000        0.000000        0.000000    
          2    1.050001       0.1000000E-05   0.1000000E-01
          3    1.445001       0.3950011        4028.024    
          4    1.840001       0.7900012        8212.063    
          5    2.235001        1.185001        12552.13    
          6    2.630001        1.580001        17048.22    
          7    3.025001        1.975001        21700.33    
          8    3.420002        2.370002        26508.47    
          9    3.815002        2.765002        31472.63    
         10    4.210002        3.160002        36592.82    
         11    4.605002        3.555002        41869.04    
         12    5.000000        3.950000        47301.25    
         13    5.000001        3.950001        47301.26    
         14    15.00000        13.95000        186801.3    

 REACH GROUP =    12 GROUP =    12

          N   ELEVATION [L]       DEPTH [L]     VOLUME [L3]
 ---------- --------------- --------------- ---------------
          1   0.9500000        0.000000        0.000000    
          2   0.9500010       0.1000000E-05   0.1000000E-01
          3    1.355001       0.4050011        4132.024    
          4    1.760001       0.8100012        8428.063    
          5    2.165001        1.215001        12888.13    
          6    2.570001        1.620001        17512.22    
          7    2.975002        2.025002        22300.33    
          8    3.380002        2.430002        27252.47    
          9    3.785002        2.835002        32368.63    
         10    4.190002        3.240002        37648.82    
         11    4.595002        3.645002        43093.04    
         12    5.000000        4.050000        48701.25    
         13    5.000001        4.050001        48701.26    
         14    15.00000        14.05000        189201.3    

 REACH GROUP =    13 GROUP =    13

          N   ELEVATION [L]       DEPTH [L]     VOLUME [L3]
 ---------- --------------- --------------- ---------------
          1   0.8500000        0.000000        0.000000    
          2   0.8500010       0.1000000E-05   0.1000000E-01
          3    1.265001       0.4150011        4236.124    
          4    1.680001       0.8300012        8644.463    
          5    2.095001        1.245001        13225.03    
          6    2.510001        1.660001        17977.82    
          7    2.925002        2.075001        22902.83    
          8    3.340002        2.490002        28000.07    
          9    3.755002        2.905002        33269.53    
         10    4.170002        3.320002        38711.22    
         11    4.585002        3.735002        44325.14    
         12    5.000000        4.150000        50111.25    
         13    5.000001        4.150001        50111.26    
         14    15.00000        14.15000        191611.2    

 REACH GROUP =    14 GROUP =    14

          N   ELEVATION [L]       DEPTH [L]     VOLUME [L3]
 ---------- --------------- --------------- ---------------
          1   0.7500000        0.000000        0.000000    
          2   0.7500010       0.1000000E-05   0.1000000E-01
          3    1.175001       0.4250011        4340.324    
          4    1.600001       0.8500012        8861.263    
          5    2.025001        1.275001        13562.83    
          6    2.450001        1.700001        18445.02    
          7    2.875002        2.125002        23507.83    
          8    3.300002        2.550002        28751.27    
          9    3.725002        2.975002        34175.33    
         10    4.150002        3.400002        39780.02    
         11    4.575002        3.825002        45565.34    
         12    5.000000        4.250000        51531.25    
         13    5.000001        4.250001        51531.26    
         14    15.00000        14.25000        194031.2    

 REACH GROUP =    15 GROUP =    15

          N   ELEVATION [L]       DEPTH [L]     VOLUME [L3]
 ---------- --------------- --------------- ---------------
          1   0.6500000        0.000000        0.000000    
          2   0.6500010       0.1000000E-05   0.1000000E-01
          3    1.085001       0.4350011        4444.624    
          4    1.520001       0.8700012        9078.463    
          5    1.955001        1.305001        13901.53    
          6    2.390001        1.740001        18913.82    
          7    2.825001        2.175001        24115.33    
          8    3.260002        2.610002        29506.07    
          9    3.695002        3.045002        35086.03    
         10    4.130002        3.480002        40855.22    
         11    4.565002        3.915002        46813.64    
         12    5.000000        4.350000        52961.25    
         13    5.000001        4.350001        52961.26    
         14    15.00000        14.35000        196461.2    

 REACH GROUP =    16 GROUP =    16

          N   ELEVATION [L]       DEPTH [L]     VOLUME [L3]
 ---------- --------------- --------------- ---------------
          1   0.5500000        0.000000        0.000000    
          2   0.5500010       0.1000000E-05   0.1000000E-01
          3   0.9950011       0.4450011        4549.024    
          4    1.440001       0.8900012        9296.063    
          5    1.885001        1.335001        14241.13    
          6    2.330001        1.780001        19384.22    
          7    2.775002        2.225002        24725.33    
          8    3.220002        2.670002        30264.47    
          9    3.665002        3.115002        36001.63    
         10    4.110002        3.560002        41936.82    
         11    4.555002        4.005002        48070.04    
         12    5.000000        4.450000        54401.25    
         13    5.000001        4.450001        54401.26    
         14    15.00000        14.45000        198901.2    

 REACH GROUP =    17 GROUP =    17

          N   ELEVATION [L]       DEPTH [L]     VOLUME [L3]
 ---------- --------------- --------------- ---------------
          1   0.4500000        0.000000        0.000000    
          2   0.4500010       0.1000000E-05   0.1000000E-01
          3   0.9050011       0.4550011        4653.524    
          4    1.360001       0.9100012        9514.063    
          5    1.815001        1.365001        14581.63    
          6    2.270001        1.820001        19856.22    
          7    2.725001        2.275001        25337.83    
          8    3.180002        2.730002        31026.47    
          9    3.635002        3.185002        36922.13    
         10    4.090002        3.640002        43024.82    
         11    4.545002        4.095002        49334.54    
         12    5.000000        4.550000        55851.25    
         13    5.000001        4.550001        55851.26    
[...]
 
 SOLVING FOR HEAD 
 INITIAL HNEW IS AN EXACT SOLUTION.

 NO OUTPUT CONTROL FOR STRESS PERIOD    2   TIME STEP  120

 -------------------------------------------------------------------------------
                             SWR1 OUTPUT PRINT TIMES
                        STRESS PERIOD    2   TIME STEP   120
 --------------- --------------- --------------- --------------- ---------------
     0.15840E+06                                                                
 -------------------------------------------------------------------------------
 
 SOLVING FOR HEAD 
 INITIAL HNEW IS AN EXACT SOLUTION.

 NO OUTPUT CONTROL FOR STRESS PERIOD    2   TIME STEP  121

 -------------------------------------------------------------------------------
                             SWR1 OUTPUT PRINT TIMES
                        STRESS PERIOD    2   TIME STEP   121
 --------------- --------------- --------------- --------------- ---------------
     0.15900E+06                                                                
 -------------------------------------------------------------------------------
 
 SOLVING FOR HEAD 
 INITIAL HNEW IS AN EXACT SOLUTION.

 NO OUTPUT CONTROL FOR STRESS PERIOD    2   TIME STEP  122

 -------------------------------------------------------------------------------
                             SWR1 OUTPUT PRINT TIMES
                        STRESS PERIOD    2   TIME STEP   122
 --------------- --------------- --------------- --------------- ---------------
     0.15960E+06                                                                
 -------------------------------------------------------------------------------
 
 SOLVING FOR HEAD 
 INITIAL HNEW IS AN EXACT SOLUTION.

 NO OUTPUT CONTROL FOR STRESS PERIOD    2   TIME STEP  123

 -------------------------------------------------------------------------------
                             SWR1 OUTPUT PRINT TIMES
                        STRESS PERIOD    2   TIME STEP   123
 --------------- --------------- --------------- --------------- ---------------
     0.16020E+06                                                                
 -------------------------------------------------------------------------------
 
 SOLVING FOR HEAD 
 INITIAL HNEW IS AN EXACT SOLUTION.

 NO OUTPUT CONTROL FOR STRESS PERIOD    2   TIME STEP  124

 -------------------------------------------------------------------------------
                             SWR1 OUTPUT PRINT TIMES
                        STRESS PERIOD    2   TIME STEP   124
 --------------- --------------- --------------- --------------- ---------------
     0.16080E+06                                                                
 -------------------------------------------------------------------------------
 
 SOLVING FOR HEAD 
 INITIAL HNEW IS AN EXACT SOLUTION.

 NO OUTPUT CONTROL FOR STRESS PERIOD    2   TIME STEP  125

 -------------------------------------------------------------------------------
                             SWR1 OUTPUT PRINT TIMES
                        STRESS PERIOD    2   TIME STEP   125
 --------------- --------------- --------------- --------------- ---------------
     0.16140E+06                                                                
 -------------------------------------------------------------------------------
 
 SOLVING FOR HEAD 
 INITIAL HNEW IS AN EXACT SOLUTION.

 NO OUTPUT CONTROL FOR STRESS PERIOD    2   TIME STEP  126

 -------------------------------------------------------------------------------
                             SWR1 OUTPUT PRINT TIMES
                        STRESS PERIOD    2   TIME STEP   126
 --------------- --------------- --------------- --------------- ---------------
     0.16200E+06                                                                
 -------------------------------------------------------------------------------
 
 SOLVING FOR HEAD 
 INITIAL HNEW IS AN EXACT SOLUTION.

 NO OUTPUT CONTROL FOR STRESS PERIOD    2   TIME STEP  127

 -------------------------------------------------------------------------------
                             SWR1 OUTPUT PRINT TIMES
                        STRESS PERIOD    2   TIME STEP   127
 --------------- --------------- --------------- --------------- ---------------
     0.16260E+06                                                                
 -------------------------------------------------------------------------------
 
 SOLVING FOR HEAD 
 INITIAL HNEW IS AN EXACT SOLUTION.

 NO OUTPUT CONTROL FOR STRESS PERIOD    2   TIME STEP  128

 -------------------------------------------------------------------------------
                             SWR1 OUTPUT PRINT TIMES
                        STRESS PERIOD    2   TIME STEP   128
 --------------- --------------- --------------- --------------- ---------------
     0.16320E+06                                                                
 -------------------------------------------------------------------------------
 
 SOLVING FOR HEAD 
 INITIAL HNEW IS AN EXACT SOLUTION.

 NO OUTPUT CONTROL FOR STRESS PERIOD    2   TIME STEP  129

 -------------------------------------------------------------------------------
                             SWR1 OUTPUT PRINT TIMES
                        STRESS PERIOD    2   TIME STEP   129
 --------------- --------------- --------------- --------------- ---------------
     0.16380E+06                                                                
 -------------------------------------------------------------------------------
 
 SOLVING FOR HEAD 
 INITIAL HNEW IS AN EXACT SOLUTION.

 NO OUTPUT CONTROL FOR STRESS PERIOD    2   TIME STEP  130

 -------------------------------------------------------------------------------
                             SWR1 OUTPUT PRINT TIMES
                        STRESS PERIOD    2   TIME STEP   130
 --------------- --------------- --------------- --------------- ---------------
     0.16440E+06                                                                
 -------------------------------------------------------------------------------
 
 SOLVING FOR HEAD 
 INITIAL HNEW IS AN EXACT SOLUTION.

 NO OUTPUT CONTROL FOR STRESS PERIOD    2   TIME STEP  131

 -------------------------------------------------------------------------------
                             SWR1 OUTPUT PRINT TIMES
                        STRESS PERIOD    2   TIME STEP   131
 --------------- --------------- --------------- --------------- ---------------
     0.16500E+06                                                                
 -------------------------------------------------------------------------------
 
 SOLVING FOR HEAD 
 OUTER ITER.:     2 BACKTRACK ITERS.:     8 INIT. L2NORM:  0.105E-03 FIN. L2NORM:  0.276E-04 FIN. ALPHA:  0.686E-01 UPDATE PERFORMED
 OUTER ITER.:     1 BACKTRACK ITERS.:     8 INIT. L2NORM:  0.217E-03 FIN. L2NORM:  0.263E-04 FIN. ALPHA:  0.345E-01 UPDATE PERFORMED
 OUTER ITER.:     2 BACKTRACK ITERS.:     8 INIT. L2NORM:  0.152E-03 FIN. L2NORM:  0.260E-04 FIN. ALPHA:  0.195E-01 UPDATE PERFORMED
 INITIAL HNEW IS AN EXACT SOLUTION.

 NO OUTPUT CONTROL FOR STRESS PERIOD    2   TIME STEP  132

 -------------------------------------------------------------------------------
                             SWR1 OUTPUT PRINT TIMES
                        STRESS PERIOD    2   TIME STEP   132
 --------------- --------------- --------------- --------------- ---------------
     0.16560E+06                                                                
 -------------------------------------------------------------------------------
 
 SOLVING FOR HEAD 
 OUTER ITER.:     1 BACKTRACK ITERS.:     8 INIT. L2NORM:  0.517E-03 FIN. L2NORM:  0.307E-04 FIN. ALPHA:  0.345E-01 UPDATE PERFORMED
 INITIAL HNEW IS AN EXACT SOLUTION.

 NO OUTPUT CONTROL FOR STRESS PERIOD    2   TIME STEP  133

 -------------------------------------------------------------------------------
                             SWR1 OUTPUT PRINT TIMES
                        STRESS PERIOD    2   TIME STEP   133
 --------------- --------------- --------------- --------------- ---------------
     0.16620E+06                                                                
 -------------------------------------------------------------------------------
 
 SOLVING FOR HEAD 
 INITIAL HNEW IS AN EXACT SOLUTION.

 NO OUTPUT CONTROL FOR STRESS PERIOD    2   TIME STEP  134

 -------------------------------------------------------------------------------
                             SWR1 OUTPUT PRINT TIMES
                        STRESS PERIOD    2   TIME STEP   134
 --------------- --------------- --------------- --------------- ---------------
     0.16680E+06                                                                
 -------------------------------------------------------------------------------
 
 SOLVING FOR HEAD 
 INITIAL HNEW IS AN EXACT SOLUTION.

 NO OUTPUT CONTROL FOR STRESS PERIOD    2   TIME STEP  135

 -------------------------------------------------------------------------------
                             SWR1 OUTPUT PRINT TIMES
                        STRESS PERIOD    2   TIME STEP   135
 --------------- --------------- --------------- --------------- ---------------
     0.16740E+06                                                                
 -------------------------------------------------------------------------------
 
 SOLVING FOR HEAD 
 INITIAL HNEW IS AN EXACT SOLUTION.

 NO OUTPUT CONTROL FOR STRESS PERIOD    2   TIME STEP  136

 -------------------------------------------------------------------------------
                             SWR1 OUTPUT PRINT TIMES
                        STRESS PERIOD    2   TIME STEP   136
 --------------- --------------- --------------- --------------- ---------------
     0.16800E+06                                                                
 -------------------------------------------------------------------------------
 
 SOLVING FOR HEAD 
 INITIAL HNEW IS AN EXACT SOLUTION.

 NO OUTPUT CONTROL FOR STRESS PERIOD    2   TIME STEP  137

 -------------------------------------------------------------------------------
                             SWR1 OUTPUT PRINT TIMES
                        STRESS PERIOD    2   TIME STEP   137
 --------------- --------------- --------------- --------------- ---------------
     0.16860E+06                                                                
 -------------------------------------------------------------------------------
 
 SOLVING FOR HEAD 
 INITIAL HNEW IS AN EXACT SOLUTION.

 NO OUTPUT CONTROL FOR STRESS PERIOD    2   TIME STEP  138

 -------------------------------------------------------------------------------
                             SWR1 OUTPUT PRINT TIMES
                        STRESS PERIOD    2   TIME STEP   138
 --------------- --------------- --------------- --------------- ---------------
     0.16920E+06                                                                
 -------------------------------------------------------------------------------
 
 SOLVING FOR HEAD 
 INITIAL HNEW IS AN EXACT SOLUTION.

 NO OUTPUT CONTROL FOR STRESS PERIOD    2   TIME STEP  139

 -------------------------------------------------------------------------------
                             SWR1 OUTPUT PRINT TIMES
                        STRESS PERIOD    2   TIME STEP   139
 --------------- --------------- --------------- --------------- ---------------
     0.16980E+06                                                                
 -------------------------------------------------------------------------------
 
 SOLVING FOR HEAD 
 INITIAL HNEW IS AN EXACT SOLUTION.

 NO OUTPUT CONTROL FOR STRESS PERIOD    2   TIME STEP  140

 -------------------------------------------------------------------------------
                             SWR1 OUTPUT PRINT TIMES
                        STRESS PERIOD    2   TIME STEP   140
 --------------- --------------- --------------- --------------- ---------------
     0.17040E+06                                                                
 -------------------------------------------------------------------------------
 
 SOLVING FOR HEAD 
 INITIAL HNEW IS AN EXACT SOLUTION.

 NO OUTPUT CONTROL FOR STRESS PERIOD    2   TIME STEP  141

 -------------------------------------------------------------------------------
                             SWR1 OUTPUT PRINT TIMES
                        STRESS PERIOD    2   TIME STEP   141
 --------------- --------------- --------------- --------------- ---------------
     0.17100E+06                                                                
 -------------------------------------------------------------------------------
 
 SOLVING FOR HEAD 
 INITIAL HNEW IS AN EXACT SOLUTION.

 NO OUTPUT CONTROL FOR STRESS PERIOD    2   TIME STEP  142

 -------------------------------------------------------------------------------
                             SWR1 OUTPUT PRINT TIMES
                        STRESS PERIOD    2   TIME STEP   142
 --------------- --------------- --------------- --------------- ---------------
     0.17160E+06                                                                
 -------------------------------------------------------------------------------
 
 SOLVING FOR HEAD 
 INITIAL HNEW IS AN EXACT SOLUTION.

 NO OUTPUT CONTROL FOR STRESS PERIOD    2   TIME STEP  143

 -------------------------------------------------------------------------------
                             SWR1 OUTPUT PRINT TIMES
                        STRESS PERIOD    2   TIME STEP   143
 --------------- --------------- --------------- --------------- ---------------
     0.17220E+06                                                                
 -------------------------------------------------------------------------------
 
 SOLVING FOR HEAD 
 INITIAL HNEW IS AN EXACT SOLUTION.

 OUTPUT CONTROL FOR STRESS PERIOD    2   TIME STEP  144
    SAVE BUDGET
    PRINT BUDGET

 MAXIMUM RESIDUAL FOR EACH SWR TIMESTEP (NEG. ISWRDT VALUES INDICATE REL. TOLR EXCEEDED)
 ISWRDT,ITER.,MAX.RESID., LOC. ISWRDT,ITER.,MAX.RESID., LOC. ISWRDT,ITER.,MAX.RESID., LOC.
 -----------------------------------------------------------------------------------------
 (    1,    2, 0.425E-04,   20)(    2,    2, 0.427E-04,   20)
 -----------------------------------------------------------------------------------------

 SWR TIME STEP SUMMARY
 ISWRDT,     SWRDT ISWRDT,     SWRDT ISWRDT,     SWRDT ISWRDT,     SWRDT ISWRDT,     SWRDT 
 -----------------------------------------------------------------------------------------
 (    1,  300.    )(    2,  300.    )
 -----------------------------------------------------------------------------------------

 -------------------------------------------------------------------------------
                             SWR1 OUTPUT PRINT TIMES
                        STRESS PERIOD    2   TIME STEP   144
 --------------- --------------- --------------- --------------- ---------------
     0.17280E+06                                                                
 -------------------------------------------------------------------------------


                    VOLUMETRIC SURFACE WATER BUDGET FOR ENTIRE MODEL
                    AT END OF TIME STEP   144 IN STRESS PERIOD    2
  -----------------------------------------------------------------------------------

        CUMULATIVE VOLUMES      L**3       RATES FOR THIS TIME STEP      L**3/T
        ------------------                 ------------------------

              IN:                                      IN:
              ---                                      ---
          LATERAL FLOW  =     3474000.0000         LATERAL FLOW  =          20.0000
         UNSAT. RUNOFF  =           0.0000        UNSAT. RUNOFF  =           0.0000
              RAINFALL  =           0.0000             RAINFALL  =           0.0000
           EVAPORATION  =           0.0000          EVAPORATION  =           0.0000
         REACH-AQ FLOW  =           0.0000        REACH-AQ FLOW  =           0.0000
         EXTERNAL FLOW  =           0.0000        EXTERNAL FLOW  =           0.0000
         BOUNDARY FLOW  =           0.0000        BOUNDARY FLOW  =           0.0000
         CONSTANT FLOW  =           0.0000        CONSTANT FLOW  =           0.0000
               STORAGE  =       10535.9746              STORAGE  =       8.5580E-09

               TOTAL IN =     3484536.0000              TOTAL IN =          20.0000

             OUT:                                     OUT:
             ----                                     ----
          LATERAL FLOW  =           0.0000         LATERAL FLOW  =           0.0000
         UNSAT. RUNOFF  =           0.0000        UNSAT. RUNOFF  =           0.0000
              RAINFALL  =           0.0000             RAINFALL  =           0.0000
           EVAPORATION  =           0.0000          EVAPORATION  =           0.0000
         REACH-AQ FLOW  =           0.0000        REACH-AQ FLOW  =           0.0000
         EXTERNAL FLOW  =           0.0000        EXTERNAL FLOW  =           0.0000
         BOUNDARY FLOW  =     3473999.7500        BOUNDARY FLOW  =          20.0001
         CONSTANT FLOW  =           0.0000        CONSTANT FLOW  =           0.0000
               STORAGE  =       10536.2256              STORAGE  =       3.4089E-08

              TOTAL OUT =     3484536.0000             TOTAL OUT =          20.0001

               IN - OUT =           0.0000              IN - OUT =      -1.4114E-04

    PERCENT DISCREPANCY =           0.00     PERCENT DISCREPANCY =          -0.00

1
  VOLUMETRIC BUDGET FOR ENTIRE MODEL AT END OF TIME STEP  144, STRESS PERIOD   2
  ------------------------------------------------------------------------------

     CUMULATIVE VOLUMES      L**3       RATES FOR THIS TIME STEP      L**3/T
     ------------------                 ------------------------

           IN:                                      IN:
           ---                                      ---
             STORAGE     =           0.0000               STORAGE     =           0.0000
       CONSTANT HEAD     =           0.0000         CONSTANT HEAD     =           0.0000
         SWR LEAKAGE     =           0.0000           SWR LEAKAGE     =           0.0000
            SWR GWET     =           0.0000              SWR GWET     =           0.0000

                TOTAL IN =           0.0000                  TOTAL IN =           0.0000

          OUT:                                     OUT:
          ----                                     ----
             STORAGE     =           0.0000               STORAGE     =           0.0000
       CONSTANT HEAD     =           0.0000         CONSTANT HEAD     =           0.0000
         SWR LEAKAGE     =           0.0000           SWR LEAKAGE     =           0.0000
            SWR GWET     =           0.0000              SWR GWET     =           0.0000

               TOTAL OUT =           0.0000                 TOTAL OUT =           0.0000

                IN - OUT =           0.0000                  IN - OUT =           0.0000

     PERCENT DISCREPANCY =           0.00         PERCENT DISCREPANCY =           0.00






         TIME SUMMARY AT END OF TIME STEP  144 IN STRESS PERIOD    2
                    SECONDS     MINUTES      HOURS       DAYS        YEARS
                    -----------------------------------------------------------
   TIME STEP LENGTH  600.00      10.000     0.16667     6.94444E-03 1.90129E-05
 STRESS PERIOD TIME  86400.      1440.0      24.000      1.0000     2.73785E-03
         TOTAL TIME 1.72800E+05  2880.0      48.000      2.0000     5.47570E-03
1

 Run end date and time (yyyy/mm/dd hh:mm:ss): 2023/12/15 12:50:39
 Elapsed run time:  0.837 Seconds



 SUMMARY OF SWR1 PROCESS EXECUTION TIME
 TOTAL SWR1 EXECUTION TIME:    0.7734375     SECONDS
